
     RDKit          3D

 18  0  0  0  0  0  0  0  0  0999 V2000
   -4.5980    3.1500   14.2680 C   0  0  0  0  0  0  0  0  0  0  0  0
   -2.9950    3.5400   15.3810 C   0  0  0  0  0  0  0  0  0  0  0  0
   -5.9830    4.1140   14.8930 C   0  0  0  0  0  0  0  0  0  0  0  0
   -4.1990    1.4620   15.6430 C   0  0  0  0  0  0  0  0  0  0  0  0
   -3.7230    4.7260   13.5970 C   0  0  0  0  0  0  0  0  0  0  0  0
   -4.5800    2.0180   16.8140 C   0  0  0  0  0  0  0  0  0  0  0  0
   -1.8310    4.5960   14.4740 C   0  0  0  0  0  0  0  0  0  0  0  0
   -6.3310    5.3690   15.6900 C   0  0  0  0  0  0  0  0  0  0  0  0
   -2.8760    5.4170   12.7620 C   0  0  0  0  0  0  0  0  0  0  0  0
   -7.1130    3.8650   16.9380 C   0  0  0  0  0  0  0  0  0  0  0  0
   -6.3380    1.3750   17.0400 C   0  0  0  0  0  0  0  0  0  0  0  0
   -4.5300   -0.4750   14.8090 C   0  0  0  0  0  0  0  0  0  0  0  0
   -3.2250    7.6150   15.4380 C   0  0  0  0  0  0  0  0  0  0  0  0
   -7.5430    1.1430   16.8500 C   0  0  0  0  0  0  0  0  0  0  0  0
   -6.2200    0.2850   17.4630 C   0  0  0  0  0  0  0  0  0  0  0  0
   -6.2980    2.3570   18.8640 C   0  0  0  0  0  0  0  0  0  0  0  0
   -1.6740    8.5200   15.3380 C   0  0  0  0  0  0  0  0  0  0  0  0
   -2.3020   11.4170   13.7550 C   0  0  0  0  0  0  0  0  0  0  0  0
M  END
$$$$

     RDKit          3D

 16  0  0  0  0  0  0  0  0  0999 V2000
   -3.0920    3.1360   14.8860 C   0  0  0  0  0  0  0  0  0  0  0  0
   -5.1180    2.1910   15.7390 C   0  0  0  0  0  0  0  0  0  0  0  0
   -5.1440    4.3450   14.6890 C   0  0  0  0  0  0  0  0  0  0  0  0
   -3.0010    5.4400   13.9270 C   0  0  0  0  0  0  0  0  0  0  0  0
   -5.8240    3.3100   15.3170 C   0  0  0  0  0  0  0  0  0  0  0  0
   -3.7620    4.2870   14.4800 C   0  0  0  0  0  0  0  0  0  0  0  0
   -3.7540    2.0940   15.5100 C   0  0  0  0  0  0  0  0  0  0  0  0
   -6.1400    0.6580   16.2500 S   0  0  0  0  0  0  0  0  0  0  0  0
   -3.0010    5.4400   12.3940 C   0  0  0  0  0  0  0  0  0  0  0  0
   -5.8850    0.6580   17.7830 O   0  0  0  0  0  0  0  0  0  0  0  0
   -3.5120    6.7180   14.4380 C   0  0  0  0  0  0  0  0  0  0  0  0
   -2.7450    7.9960   14.1830 C   0  0  0  0  0  0  0  0  0  0  0  0
   -2.4900    9.0180   15.4600 C   0  0  0  0  0  0  0  0  0  0  0  0
   -7.6740    0.9130   15.9950 O   0  0  0  0  0  0  0  0  0  0  0  0
   -3.2570    9.0180   16.7380 O   0  0  0  0  0  0  0  0  0  0  0  0
   -5.8850   -0.6200   15.4830 O   0  0  0  0  0  0  0  0  0  0  0  0
M  END
$$$$
