6lu7_contact_betas
     RDKit          3D

  1  0  0  0  0  0  0  0  0  0999 V2000
   -9.1420    4.4620   73.4830 C   0  0  0  0  0  0  0  0  0  0  0  0
M  END
$$$$
6lu7_contact_betas
     RDKit          3D

 26  0  0  0  0  0  0  0  0  0999 V2000
   -5.7350   20.1740   67.2530 C   0  0  0  0  0  0  0  0  0  0  0  0
  -11.1440    9.0180   71.1200 C   0  0  0  0  0  0  0  0  0  0  0  0
   -9.1310    7.8720   70.0540 C   0  0  0  0  0  0  0  0  0  0  0  0
  -11.2260    6.1190   69.7530 C   0  0  0  0  0  0  0  0  0  0  0  0
  -11.9040    6.8380   71.3950 C   0  0  0  0  0  0  0  0  0  0  0  0
  -14.9790    7.5820   71.8200 C   0  0  0  0  0  0  0  0  0  0  0  0
  -13.1930   14.6050   71.7970 C   0  0  0  0  0  0  0  0  0  0  0  0
  -12.2970   15.4550   71.2600 C   0  0  0  0  0  0  0  0  0  0  0  0
  -12.8230   15.3840   72.9300 C   0  0  0  0  0  0  0  0  0  0  0  0
   -9.5150   19.1510   67.6520 C   0  0  0  0  0  0  0  0  0  0  0  0
  -10.1920   19.3070   66.6580 C   0  0  0  0  0  0  0  0  0  0  0  0
  -10.4790   15.6920   68.4820 C   0  0  0  0  0  0  0  0  0  0  0  0
   -7.1260   17.5700   67.3850 C   0  0  0  0  0  0  0  0  0  0  0  0
   -8.3610   16.3100   66.1870 C   0  0  0  0  0  0  0  0  0  0  0  0
  -11.4770   12.9590   68.4410 C   0  0  0  0  0  0  0  0  0  0  0  0
  -11.6880   11.2550   69.2020 C   0  0  0  0  0  0  0  0  0  0  0  0
   -8.7760    9.6200   67.3740 C   0  0  0  0  0  0  0  0  0  0  0  0
  -10.1820   11.2700   67.4240 C   0  0  0  0  0  0  0  0  0  0  0  0
  -12.9470   11.7160   63.1600 C   0  0  0  0  0  0  0  0  0  0  0  0
  -12.1200   12.6640   63.5080 C   0  0  0  0  0  0  0  0  0  0  0  0
  -10.7350   11.9370   63.9740 C   0  0  0  0  0  0  0  0  0  0  0  0
  -11.5250   16.5410   64.3640 C   0  0  0  0  0  0  0  0  0  0  0  0
  -12.4030   14.8960   64.4540 C   0  0  0  0  0  0  0  0  0  0  0  0
  -11.5000   13.3380   65.3970 C   0  0  0  0  0  0  0  0  0  0  0  0
  -10.4800   15.3040   65.8730 C   0  0  0  0  0  0  0  0  0  0  0  0
  -10.7010   13.7520   67.0620 C   0  0  0  0  0  0  0  0  0  0  0  0
M  END
$$$$
ligand_6lu7_native
     RDKit          3D

 43 44  0  0  0  0  0  0  0  0999 V2000
  -12.5830    6.6250   72.3740 N   0  0  0  0  0  0  0  0  0  0  0  0
  -11.9430    9.2810   69.9110 N   0  0  0  0  0  0  0  0  0  0  0  0
  -11.4520   12.8590   70.0850 N   0  0  0  0  0  0  0  0  0  0  0  0
  -13.1660    7.6250   71.4950 C   0  0  0  0  0  0  0  0  0  0  0  0
  -10.9550   10.3360   69.6660 C   0  0  0  0  0  0  0  0  0  0  0  0
  -12.1240   14.0960   69.7160 C   0  0  0  0  0  0  0  0  0  0  0  0
  -12.1150    8.7500   71.2410 C   0  0  0  0  0  0  0  0  0  0  0  0
  -11.6630   11.6060   69.2730 C   0  0  0  0  0  0  0  0  0  0  0  0
  -11.5820   14.5610   68.3340 C   0  0  0  0  0  0  0  0  0  0  0  0
   -7.8300   17.5820   66.7590 C   0  0  0  0  0  0  0  0  0  0  0  0
  -11.4660    9.1590   72.1250 O   0  0  0  0  0  0  0  0  0  0  0  0
  -12.3810   11.6170   68.3280 O   0  0  0  0  0  0  0  0  0  0  0  0
  -10.4110   14.5700   68.1310 O   0  0  0  0  0  0  0  0  0  0  0  0
   -8.8400   17.7820   65.7660 O   0  0  0  0  0  0  0  0  0  0  0  0
  -14.3970    8.2180   72.1320 C   0  0  0  0  0  0  0  0  0  0  0  0
  -10.0040    9.8950   68.5150 C   0  0  0  0  0  0  0  0  0  0  0  0
  -11.8250   15.1550   70.7650 C   0  0  0  0  0  0  0  0  0  0  0  0
  -13.0010   15.3970   71.7640 C   0  0  0  0  0  0  0  0  0  0  0  0
   -9.1300   11.0860   68.0120 C   0  0  0  0  0  0  0  0  0  0  0  0
   -9.1160    8.6870   68.9550 C   0  0  0  0  0  0  0  0  0  0  0  0
  -13.8340   14.1000   72.0190 C   0  0  0  0  0  0  0  0  0  0  0  0
  -12.4870   15.9820   73.0820 C   0  0  0  0  0  0  0  0  0  0  0  0
  -10.0480    3.7550   74.5750 O   0  0  0  0  0  0  0  0  0  0  0  0
  -10.5850    4.8610   74.1140 N   0  0  0  0  0  0  0  0  0  0  0  0
  -10.8480    4.7380   72.8100 C   0  0  0  0  0  0  0  0  0  0  0  0
  -10.4250    3.4200   72.4470 C   0  0  0  0  0  0  0  0  0  0  0  0
   -9.9240    2.8570   73.6420 C   0  0  0  0  0  0  0  0  0  0  0  0
  -12.5240   14.9870   67.2600 N   0  0  0  0  0  0  0  0  0  0  0  0
   -7.0820   18.9270   66.9590 C   0  0  0  0  0  0  0  0  0  0  0  0
  -11.2380   11.5710   63.2750 N   0  0  0  0  0  0  0  0  0  0  0  0
  -10.3540   17.7310   67.4510 O   0  0  0  0  0  0  0  0  0  0  0  0
  -13.4400   12.7300   63.4910 O   0  0  0  0  0  0  0  0  0  0  0  0
  -11.9930   15.4250   65.9510 C   0  0  0  0  0  0  0  0  0  0  0  0
  -12.4990   16.8170   65.6470 C   0  0  0  0  0  0  0  0  0  0  0  0
  -11.3650   17.8020   65.2890 C   0  0  0  0  0  0  0  0  0  0  0  0
  -10.1670   17.7640   66.2780 C   0  0  0  0  0  0  0  0  0  0  0  0
  -12.4560   14.4640   64.8580 C   0  0  0  0  0  0  0  0  0  0  0  0
  -11.8270   13.0030   65.0480 C   0  0  0  0  0  0  0  0  0  0  0  0
  -10.2150   13.0410   64.7250 C   0  0  0  0  0  0  0  0  0  0  0  0
   -9.9250   12.0610   63.8360 C   0  0  0  0  0  0  0  0  0  0  0  0
  -12.3830   12.1480   64.2560 C   0  0  0  0  0  0  0  0  0  0  0  0
  -11.4750    5.7980   71.8910 C   0  0  0  0  0  0  0  0  0  0  0  0
  -11.0620    5.9430   70.7930 O   0  0  0  0  0  0  0  0  0  0  0  0
  1  4  1  0
  1 42  1  0
  2  5  1  0
  2  7  1  0
  3  6  1  0
  3  8  1  0
  4  7  1  0
  4 15  1  0
  5  8  1  0
  5 16  1  0
  6  9  1  0
  6 17  1  0
  7 11  2  0
  8 12  2  0
  9 13  2  0
  9 28  1  0
 10 14  1  0
 10 29  1  0
 14 36  1  0
 16 19  1  0
 16 20  1  0
 17 18  1  0
 18 21  1  0
 18 22  1  0
 23 24  4  0
 23 27  4  0
 24 25  4  0
 25 26  4  0
 25 42  1  0
 26 27  4  0
 28 33  1  0
 30 40  1  0
 30 41  1  0
 31 36  2  0
 32 41  1  0
 33 34  1  0
 33 37  1  0
 34 35  1  0
 35 36  1  0
 37 38  1  0
 38 39  1  0
 38 41  1  0
 39 40  1  0
 42 43  2  0
M  END
$$$$
