6lu7_contact_betas
     RDKit          3D

  1  0  0  0  0  0  0  0  0  0999 V2000
  -11.1440    9.0180   71.1200 C   0  0  0  0  0  0  0  0  0  0  0  0
M  END
$$$$
6lu7_contact_betas
     RDKit          3D

 26  0  0  0  0  0  0  0  0  0999 V2000
   -5.7350   20.1740   67.2530 C   0  0  0  0  0  0  0  0  0  0  0  0
   -9.1420    4.4620   73.4830 C   0  0  0  0  0  0  0  0  0  0  0  0
   -9.1310    7.8720   70.0540 C   0  0  0  0  0  0  0  0  0  0  0  0
  -11.2260    6.1190   69.7530 C   0  0  0  0  0  0  0  0  0  0  0  0
  -11.9040    6.8380   71.3950 C   0  0  0  0  0  0  0  0  0  0  0  0
  -14.9790    7.5820   71.8200 C   0  0  0  0  0  0  0  0  0  0  0  0
  -13.1930   14.6050   71.7970 C   0  0  0  0  0  0  0  0  0  0  0  0
  -12.2970   15.4550   71.2600 C   0  0  0  0  0  0  0  0  0  0  0  0
  -12.8230   15.3840   72.9300 C   0  0  0  0  0  0  0  0  0  0  0  0
   -9.5150   19.1510   67.6520 C   0  0  0  0  0  0  0  0  0  0  0  0
  -10.1920   19.3070   66.6580 C   0  0  0  0  0  0  0  0  0  0  0  0
  -10.4790   15.6920   68.4820 C   0  0  0  0  0  0  0  0  0  0  0  0
   -7.1260   17.5700   67.3850 C   0  0  0  0  0  0  0  0  0  0  0  0
   -8.3610   16.3100   66.1870 C   0  0  0  0  0  0  0  0  0  0  0  0
  -11.4770   12.9590   68.4410 C   0  0  0  0  0  0  0  0  0  0  0  0
  -11.6880   11.2550   69.2020 C   0  0  0  0  0  0  0  0  0  0  0  0
   -8.7760    9.6200   67.3740 C   0  0  0  0  0  0  0  0  0  0  0  0
  -10.1820   11.2700   67.4240 C   0  0  0  0  0  0  0  0  0  0  0  0
  -12.9470   11.7160   63.1600 C   0  0  0  0  0  0  0  0  0  0  0  0
  -12.1200   12.6640   63.5080 C   0  0  0  0  0  0  0  0  0  0  0  0
  -10.7350   11.9370   63.9740 C   0  0  0  0  0  0  0  0  0  0  0  0
  -11.5250   16.5410   64.3640 C   0  0  0  0  0  0  0  0  0  0  0  0
  -12.4030   14.8960   64.4540 C   0  0  0  0  0  0  0  0  0  0  0  0
  -11.5000   13.3380   65.3970 C   0  0  0  0  0  0  0  0  0  0  0  0
  -10.4800   15.3040   65.8730 C   0  0  0  0  0  0  0  0  0  0  0  0
  -10.7010   13.7520   67.0620 C   0  0  0  0  0  0  0  0  0  0  0  0
M  END
$$$$
ligand_6lu7_native
     RDKit          3D

 12 10  0  0  0  0  0  0  0  0999 V2000
  -11.9430    9.2810   69.9110 N   0  0  0  0  0  0  0  0  0  0  0  0
  -11.4520   12.8590   70.0850 N   0  0  0  0  0  0  0  0  0  0  0  0
  -10.9550   10.3360   69.6660 C   0  0  0  0  0  0  0  0  0  0  0  0
  -12.1240   14.0960   69.7160 C   0  0  0  0  0  0  0  0  0  0  0  0
  -11.6630   11.6060   69.2730 C   0  0  0  0  0  0  0  0  0  0  0  0
  -11.5820   14.5610   68.3340 C   0  0  0  0  0  0  0  0  0  0  0  0
  -12.3810   11.6170   68.3280 O   0  0  0  0  0  0  0  0  0  0  0  0
  -10.4110   14.5700   68.1310 O   0  0  0  0  0  0  0  0  0  0  0  0
  -10.0040    9.8950   68.5150 C   0  0  0  0  0  0  0  0  0  0  0  0
   -9.1300   11.0860   68.0120 C   0  0  0  0  0  0  0  0  0  0  0  0
  -12.5240   14.9870   67.2600 N   0  0  0  0  0  0  0  0  0  0  0  0
  -11.8270   13.0030   65.0480 C   0  0  0  0  0  0  0  0  0  0  0  0
  1  3  1  0
  2  4  1  0
  2  5  1  0
  3  5  1  0
  3  9  1  0
  4  6  1  0
  5  7  2  0
  6  8  2  0
  6 11  1  0
  9 10  1  0
M  END
$$$$
