
     RDKit          3D

 18  0  0  0  0  0  0  0  0  0999 V2000
   -4.5980    3.1500   14.2680 C   0  0  0  0  0  0  0  0  0  0  0  0
   -2.9950    3.5400   15.3810 C   0  0  0  0  0  0  0  0  0  0  0  0
   -5.9830    4.1140   14.8930 C   0  0  0  0  0  0  0  0  0  0  0  0
   -4.1990    1.4620   15.6430 C   0  0  0  0  0  0  0  0  0  0  0  0
   -3.7230    4.7260   13.5970 C   0  0  0  0  0  0  0  0  0  0  0  0
   -4.5800    2.0180   16.8140 C   0  0  0  0  0  0  0  0  0  0  0  0
   -1.8310    4.5960   14.4740 C   0  0  0  0  0  0  0  0  0  0  0  0
   -6.3310    5.3690   15.6900 C   0  0  0  0  0  0  0  0  0  0  0  0
   -2.8760    5.4170   12.7620 C   0  0  0  0  0  0  0  0  0  0  0  0
   -7.1130    3.8650   16.9380 C   0  0  0  0  0  0  0  0  0  0  0  0
   -6.3380    1.3750   17.0400 C   0  0  0  0  0  0  0  0  0  0  0  0
   -4.5300   -0.4750   14.8090 C   0  0  0  0  0  0  0  0  0  0  0  0
   -3.2250    7.6150   15.4380 C   0  0  0  0  0  0  0  0  0  0  0  0
   -7.5430    1.1430   16.8500 C   0  0  0  0  0  0  0  0  0  0  0  0
   -6.2200    0.2850   17.4630 C   0  0  0  0  0  0  0  0  0  0  0  0
   -6.2980    2.3570   18.8640 C   0  0  0  0  0  0  0  0  0  0  0  0
   -1.6740    8.5200   15.3380 C   0  0  0  0  0  0  0  0  0  0  0  0
   -2.3020   11.4170   13.7550 C   0  0  0  0  0  0  0  0  0  0  0  0
M  END
$$$$

     RDKit          3D

 22  0  0  0  0  0  0  0  0  0999 V2000
   -4.1220    3.0530   14.5260 C   0  0  0  0  0  0  0  0  0  0  0  0
   -5.1440    4.0750   14.2700 C   0  0  0  0  0  0  0  0  0  0  0  0
   -6.1660    4.5860   15.2920 C   0  0  0  0  0  0  0  0  0  0  0  0
   -5.1440    4.8420   12.9920 C   0  0  0  0  0  0  0  0  0  0  0  0
   -4.3780    1.7750   15.2920 C   0  0  0  0  0  0  0  0  0  0  0  0
   -5.1440    1.7750   16.5700 C   0  0  0  0  0  0  0  0  0  0  0  0
   -2.5890    3.3080   14.2700 C   0  0  0  0  0  0  0  0  0  0  0  0
   -3.8660    0.4970   14.7810 C   0  0  0  0  0  0  0  0  0  0  0  0
   -5.6550    3.0530   17.3370 C   0  0  0  0  0  0  0  0  0  0  0  0
   -5.1440    0.4970   17.3370 C   0  0  0  0  0  0  0  0  0  0  0  0
   -6.4220    4.3300   16.8260 C   0  0  0  0  0  0  0  0  0  0  0  0
   -4.3780   -0.7810   15.2920 C   0  0  0  0  0  0  0  0  0  0  0  0
   -5.1440   -0.7810   16.5700 C   0  0  0  0  0  0  0  0  0  0  0  0
   -5.4000    0.2420   18.6140 O   0  0  0  0  0  0  0  0  0  0  0  0
   -4.8890    3.3080   18.6140 O   0  0  0  0  0  0  0  0  0  0  0  0
   -2.0780    4.5860   13.7590 C   0  0  0  0  0  0  0  0  0  0  0  0
   -2.8440    5.8640   13.2480 C   0  0  0  0  0  0  0  0  0  0  0  0
   -4.1220    5.8640   12.4810 C   0  0  0  0  0  0  0  0  0  0  0  0
   -0.8000    4.5860   13.7590 O   0  0  0  0  0  0  0  0  0  0  0  0
   -3.1000    7.1420   14.2700 C   0  0  0  0  0  0  0  0  0  0  0  0
   -2.3330    7.1420   15.5480 C   0  0  0  0  0  0  0  0  0  0  0  0
   -6.9330    5.6080   15.0370 O   0  0  0  0  0  0  0  0  0  0  0  0
M  END
$$$$
