
     RDKit          3D

 18  0  0  0  0  0  0  0  0  0999 V2000
   -4.5980    3.1500   14.2680 C   0  0  0  0  0  0  0  0  0  0  0  0
   -2.9950    3.5400   15.3810 C   0  0  0  0  0  0  0  0  0  0  0  0
   -5.9830    4.1140   14.8930 C   0  0  0  0  0  0  0  0  0  0  0  0
   -4.1990    1.4620   15.6430 C   0  0  0  0  0  0  0  0  0  0  0  0
   -3.7230    4.7260   13.5970 C   0  0  0  0  0  0  0  0  0  0  0  0
   -4.5800    2.0180   16.8140 C   0  0  0  0  0  0  0  0  0  0  0  0
   -1.8310    4.5960   14.4740 C   0  0  0  0  0  0  0  0  0  0  0  0
   -6.3310    5.3690   15.6900 C   0  0  0  0  0  0  0  0  0  0  0  0
   -2.8760    5.4170   12.7620 C   0  0  0  0  0  0  0  0  0  0  0  0
   -7.1130    3.8650   16.9380 C   0  0  0  0  0  0  0  0  0  0  0  0
   -6.3380    1.3750   17.0400 C   0  0  0  0  0  0  0  0  0  0  0  0
   -4.5300   -0.4750   14.8090 C   0  0  0  0  0  0  0  0  0  0  0  0
   -3.2250    7.6150   15.4380 C   0  0  0  0  0  0  0  0  0  0  0  0
   -7.5430    1.1430   16.8500 C   0  0  0  0  0  0  0  0  0  0  0  0
   -6.2200    0.2850   17.4630 C   0  0  0  0  0  0  0  0  0  0  0  0
   -6.2980    2.3570   18.8640 C   0  0  0  0  0  0  0  0  0  0  0  0
   -1.6740    8.5200   15.3380 C   0  0  0  0  0  0  0  0  0  0  0  0
   -2.3020   11.4170   13.7550 C   0  0  0  0  0  0  0  0  0  0  0  0
M  END
$$$$

     RDKit          3D

 15  0  0  0  0  0  0  0  0  0999 V2000
   -4.3700    3.5490   14.5260 C   0  0  0  0  0  0  0  0  0  0  0  0
   -3.0920    3.0380   15.2920 C   0  0  0  0  0  0  0  0  0  0  0  0
   -3.3480    1.7600   16.0590 N   0  0  0  0  0  0  0  0  0  0  0  0
   -4.3700    4.8270   13.5030 C   0  0  0  0  0  0  0  0  0  0  0  0
   -4.8810    2.2710   13.2480 C   0  0  0  0  0  0  0  0  0  0  0  0
   -3.0920    5.5940   13.2480 C   0  0  0  0  0  0  0  0  0  0  0  0
   -4.3700    0.9940   13.7590 C   0  0  0  0  0  0  0  0  0  0  0  0
   -4.6260    0.9940   16.0590 C   0  0  0  0  0  0  0  0  0  0  0  0
   -4.8810    0.4830   14.5260 C   0  0  0  0  0  0  0  0  0  0  0  0
   -5.9040    1.5050   16.5700 C   0  0  0  0  0  0  0  0  0  0  0  0
   -6.4150    2.7830   17.0810 N   0  0  0  0  0  0  0  0  0  0  0  0
   -1.8150    5.5940   14.2700 C   0  0  0  0  0  0  0  0  0  0  0  0
   -6.9260    2.7830   18.3590 C   0  0  0  0  0  0  0  0  0  0  0  0
   -7.1810    0.4830   16.5700 C   0  0  0  0  0  0  0  0  0  0  0  0
   -6.9260    1.7600   19.1260 N   0  0  0  0  0  0  0  0  0  0  0  0
M  END
$$$$
