
     RDKit          3D

 18  0  0  0  0  0  0  0  0  0999 V2000
   -4.5980    3.1500   14.2680 C   0  0  0  0  0  0  0  0  0  0  0  0
   -2.9950    3.5400   15.3810 C   0  0  0  0  0  0  0  0  0  0  0  0
   -5.9830    4.1140   14.8930 C   0  0  0  0  0  0  0  0  0  0  0  0
   -4.1990    1.4620   15.6430 C   0  0  0  0  0  0  0  0  0  0  0  0
   -3.7230    4.7260   13.5970 C   0  0  0  0  0  0  0  0  0  0  0  0
   -4.5800    2.0180   16.8140 C   0  0  0  0  0  0  0  0  0  0  0  0
   -1.8310    4.5960   14.4740 C   0  0  0  0  0  0  0  0  0  0  0  0
   -6.3310    5.3690   15.6900 C   0  0  0  0  0  0  0  0  0  0  0  0
   -2.8760    5.4170   12.7620 C   0  0  0  0  0  0  0  0  0  0  0  0
   -7.1130    3.8650   16.9380 C   0  0  0  0  0  0  0  0  0  0  0  0
   -6.3380    1.3750   17.0400 C   0  0  0  0  0  0  0  0  0  0  0  0
   -4.5300   -0.4750   14.8090 C   0  0  0  0  0  0  0  0  0  0  0  0
   -3.2250    7.6150   15.4380 C   0  0  0  0  0  0  0  0  0  0  0  0
   -7.5430    1.1430   16.8500 C   0  0  0  0  0  0  0  0  0  0  0  0
   -6.2200    0.2850   17.4630 C   0  0  0  0  0  0  0  0  0  0  0  0
   -6.2980    2.3570   18.8640 C   0  0  0  0  0  0  0  0  0  0  0  0
   -1.6740    8.5200   15.3380 C   0  0  0  0  0  0  0  0  0  0  0  0
   -2.3020   11.4170   13.7550 C   0  0  0  0  0  0  0  0  0  0  0  0
M  END
$$$$

     RDKit          3D

 14  0  0  0  0  0  0  0  0  0999 V2000
   -4.6190    3.5490   14.7740 C   0  0  0  0  0  0  0  0  0  0  0  0
   -3.0850    3.0380   15.0290 C   0  0  0  0  0  0  0  0  0  0  0  0
   -2.0630    3.8050   14.2630 C   0  0  0  0  0  0  0  0  0  0  0  0
   -2.3190    5.0830   13.4960 C   0  0  0  0  0  0  0  0  0  0  0  0
   -5.8960    2.7830   15.0290 C   0  0  0  0  0  0  0  0  0  0  0  0
   -4.8740    4.8270   13.7520 C   0  0  0  0  0  0  0  0  0  0  0  0
   -3.5960    5.3380   12.9850 C   0  0  0  0  0  0  0  0  0  0  0  0
   -1.2960    6.1050   13.4960 O   0  0  0  0  0  0  0  0  0  0  0  0
   -5.8960    1.5050   15.7960 C   0  0  0  0  0  0  0  0  0  0  0  0
   -4.6190    0.7380   16.3070 C   0  0  0  0  0  0  0  0  0  0  0  0
   -7.4300    1.2490   16.3070 C   0  0  0  0  0  0  0  0  0  0  0  0
   -7.6850    2.0160   17.5850 C   0  0  0  0  0  0  0  0  0  0  0  0
   -7.1740    3.0380   18.0960 O   0  0  0  0  0  0  0  0  0  0  0  0
   -8.7070    1.5050   18.3520 O   0  0  0  0  0  0  0  0  0  0  0  0
M  END
$$$$
