
     RDKit          3D

 18  0  0  0  0  0  0  0  0  0999 V2000
   -4.5980    3.1500   14.2680 C   0  0  0  0  0  0  0  0  0  0  0  0
   -2.9950    3.5400   15.3810 C   0  0  0  0  0  0  0  0  0  0  0  0
   -5.9830    4.1140   14.8930 C   0  0  0  0  0  0  0  0  0  0  0  0
   -4.1990    1.4620   15.6430 C   0  0  0  0  0  0  0  0  0  0  0  0
   -3.7230    4.7260   13.5970 C   0  0  0  0  0  0  0  0  0  0  0  0
   -4.5800    2.0180   16.8140 C   0  0  0  0  0  0  0  0  0  0  0  0
   -1.8310    4.5960   14.4740 C   0  0  0  0  0  0  0  0  0  0  0  0
   -6.3310    5.3690   15.6900 C   0  0  0  0  0  0  0  0  0  0  0  0
   -2.8760    5.4170   12.7620 C   0  0  0  0  0  0  0  0  0  0  0  0
   -7.1130    3.8650   16.9380 C   0  0  0  0  0  0  0  0  0  0  0  0
   -6.3380    1.3750   17.0400 C   0  0  0  0  0  0  0  0  0  0  0  0
   -4.5300   -0.4750   14.8090 C   0  0  0  0  0  0  0  0  0  0  0  0
   -3.2250    7.6150   15.4380 C   0  0  0  0  0  0  0  0  0  0  0  0
   -7.5430    1.1430   16.8500 C   0  0  0  0  0  0  0  0  0  0  0  0
   -6.2200    0.2850   17.4630 C   0  0  0  0  0  0  0  0  0  0  0  0
   -6.2980    2.3570   18.8640 C   0  0  0  0  0  0  0  0  0  0  0  0
   -1.6740    8.5200   15.3380 C   0  0  0  0  0  0  0  0  0  0  0  0
   -2.3020   11.4170   13.7550 C   0  0  0  0  0  0  0  0  0  0  0  0
M  END
$$$$

     RDKit          3D

 22  0  0  0  0  0  0  0  0  0999 V2000
   -4.1220    3.5490   14.7740 C   0  0  0  0  0  0  0  0  0  0  0  0
   -3.6110    3.0380   16.0520 C   0  0  0  0  0  0  0  0  0  0  0  0
   -5.4000    3.0380   14.0070 C   0  0  0  0  0  0  0  0  0  0  0  0
   -3.6110    5.0830   14.0070 S   0  0  0  0  0  0  0  0  0  0  0  0
   -4.3780    1.7600   16.5630 C   0  0  0  0  0  0  0  0  0  0  0  0
   -5.9110    1.5050   14.5180 C   0  0  0  0  0  0  0  0  0  0  0  0
   -6.6780    4.0600   14.2630 C   0  0  0  0  0  0  0  0  0  0  0  0
   -5.4000    0.9940   15.7960 C   0  0  0  0  0  0  0  0  0  0  0  0
   -1.8220    5.3380   14.5180 C   0  0  0  0  0  0  0  0  0  0  0  0
   -5.9110   -0.2840   16.3070 C   0  0  0  0  0  0  0  0  0  0  0  0
   -6.6780    4.8270   15.5400 C   0  0  0  0  0  0  0  0  0  0  0  0
   -0.8000    4.3160   14.7740 C   0  0  0  0  0  0  0  0  0  0  0  0
    0.7340    4.5710   14.7740 C   0  0  0  0  0  0  0  0  0  0  0  0
   -4.1220    1.5050   18.0960 C   0  0  0  0  0  0  0  0  0  0  0  0
   -4.1220    2.5270   19.1180 O   0  0  0  0  0  0  0  0  0  0  0  0
   -6.6780   -0.2840   17.5850 C   0  0  0  0  0  0  0  0  0  0  0  0
   -1.3110    6.6160   15.0290 C   0  0  0  0  0  0  0  0  0  0  0  0
   -2.3330    7.6380   15.5400 C   0  0  0  0  0  0  0  0  0  0  0  0
    0.2220    6.8710   14.7740 C   0  0  0  0  0  0  0  0  0  0  0  0
   -4.1220    0.2270   18.6070 O   0  0  0  0  0  0  0  0  0  0  0  0
    1.2450    5.8490   15.0290 N   0  0  0  0  0  0  0  0  0  0  0  0
    2.5220    6.3600   15.5400 C   0  0  0  0  0  0  0  0  0  0  0  0
M  END
$$$$
