
     RDKit          3D

 18  0  0  0  0  0  0  0  0  0999 V2000
   -4.5980    3.1500   14.2680 C   0  0  0  0  0  0  0  0  0  0  0  0
   -2.9950    3.5400   15.3810 C   0  0  0  0  0  0  0  0  0  0  0  0
   -5.9830    4.1140   14.8930 C   0  0  0  0  0  0  0  0  0  0  0  0
   -4.1990    1.4620   15.6430 C   0  0  0  0  0  0  0  0  0  0  0  0
   -3.7230    4.7260   13.5970 C   0  0  0  0  0  0  0  0  0  0  0  0
   -4.5800    2.0180   16.8140 C   0  0  0  0  0  0  0  0  0  0  0  0
   -1.8310    4.5960   14.4740 C   0  0  0  0  0  0  0  0  0  0  0  0
   -6.3310    5.3690   15.6900 C   0  0  0  0  0  0  0  0  0  0  0  0
   -2.8760    5.4170   12.7620 C   0  0  0  0  0  0  0  0  0  0  0  0
   -7.1130    3.8650   16.9380 C   0  0  0  0  0  0  0  0  0  0  0  0
   -6.3380    1.3750   17.0400 C   0  0  0  0  0  0  0  0  0  0  0  0
   -4.5300   -0.4750   14.8090 C   0  0  0  0  0  0  0  0  0  0  0  0
   -3.2250    7.6150   15.4380 C   0  0  0  0  0  0  0  0  0  0  0  0
   -7.5430    1.1430   16.8500 C   0  0  0  0  0  0  0  0  0  0  0  0
   -6.2200    0.2850   17.4630 C   0  0  0  0  0  0  0  0  0  0  0  0
   -6.2980    2.3570   18.8640 C   0  0  0  0  0  0  0  0  0  0  0  0
   -1.6740    8.5200   15.3380 C   0  0  0  0  0  0  0  0  0  0  0  0
   -2.3020   11.4170   13.7550 C   0  0  0  0  0  0  0  0  0  0  0  0
M  END
$$$$

     RDKit          3D

 16  0  0  0  0  0  0  0  0  0999 V2000
   -3.6250    3.3010   15.0220 C   0  0  0  0  0  0  0  0  0  0  0  0
   -4.9030    3.8120   14.5110 C   0  0  0  0  0  0  0  0  0  0  0  0
   -3.6250    2.0230   15.7890 C   0  0  0  0  0  0  0  0  0  0  0  0
   -6.1810    3.3010   15.0220 C   0  0  0  0  0  0  0  0  0  0  0  0
   -2.3480    4.0680   14.7660 C   0  0  0  0  0  0  0  0  0  0  0  0
   -4.9030    1.2570   16.0440 C   0  0  0  0  0  0  0  0  0  0  0  0
   -2.3480    5.3450   14.0000 C   0  0  0  0  0  0  0  0  0  0  0  0
   -3.1140    5.6010   12.7220 C   0  0  0  0  0  0  0  0  0  0  0  0
   -1.5810    6.3680   14.7660 C   0  0  0  0  0  0  0  0  0  0  0  0
   -6.1810    1.7680   15.5330 C   0  0  0  0  0  0  0  0  0  0  0  0
   -4.9030   -0.0210   16.8110 C   0  0  0  0  0  0  0  0  0  0  0  0
   -5.1590   -0.0210   18.0890 O   0  0  0  0  0  0  0  0  0  0  0  0
   -7.4590    1.2570   16.3000 C   0  0  0  0  0  0  0  0  0  0  0  0
   -4.6480   -1.2990   16.3000 O   0  0  0  0  0  0  0  0  0  0  0  0
   -2.3480    1.5120   16.0440 O   0  0  0  0  0  0  0  0  0  0  0  0
   -2.6030    7.6450   15.0220 C   0  0  0  0  0  0  0  0  0  0  0  0
M  END
$$$$
