
     RDKit          3D

 18  0  0  0  0  0  0  0  0  0999 V2000
   -4.5980    3.1500   14.2680 C   0  0  0  0  0  0  0  0  0  0  0  0
   -2.9950    3.5400   15.3810 C   0  0  0  0  0  0  0  0  0  0  0  0
   -5.9830    4.1140   14.8930 C   0  0  0  0  0  0  0  0  0  0  0  0
   -4.1990    1.4620   15.6430 C   0  0  0  0  0  0  0  0  0  0  0  0
   -3.7230    4.7260   13.5970 C   0  0  0  0  0  0  0  0  0  0  0  0
   -4.5800    2.0180   16.8140 C   0  0  0  0  0  0  0  0  0  0  0  0
   -1.8310    4.5960   14.4740 C   0  0  0  0  0  0  0  0  0  0  0  0
   -6.3310    5.3690   15.6900 C   0  0  0  0  0  0  0  0  0  0  0  0
   -2.8760    5.4170   12.7620 C   0  0  0  0  0  0  0  0  0  0  0  0
   -7.1130    3.8650   16.9380 C   0  0  0  0  0  0  0  0  0  0  0  0
   -6.3380    1.3750   17.0400 C   0  0  0  0  0  0  0  0  0  0  0  0
   -4.5300   -0.4750   14.8090 C   0  0  0  0  0  0  0  0  0  0  0  0
   -3.2250    7.6150   15.4380 C   0  0  0  0  0  0  0  0  0  0  0  0
   -7.5430    1.1430   16.8500 C   0  0  0  0  0  0  0  0  0  0  0  0
   -6.2200    0.2850   17.4630 C   0  0  0  0  0  0  0  0  0  0  0  0
   -6.2980    2.3570   18.8640 C   0  0  0  0  0  0  0  0  0  0  0  0
   -1.6740    8.5200   15.3380 C   0  0  0  0  0  0  0  0  0  0  0  0
   -2.3020   11.4170   13.7550 C   0  0  0  0  0  0  0  0  0  0  0  0
M  END
$$$$

     RDKit          3D

 12  0  0  0  0  0  0  0  0  0999 V2000
   -4.3700    3.3010   14.2770 C   0  0  0  0  0  0  0  0  0  0  0  0
   -5.1370    4.3230   15.0440 C   0  0  0  0  0  0  0  0  0  0  0  0
   -3.3480    3.5570   13.2550 C   0  0  0  0  0  0  0  0  0  0  0  0
   -6.1590    4.0680   16.0660 C   0  0  0  0  0  0  0  0  0  0  0  0
   -4.8810    5.8570   14.7880 C   0  0  0  0  0  0  0  0  0  0  0  0
   -6.4150    2.7900   16.8330 C   0  0  0  0  0  0  0  0  0  0  0  0
   -5.3920    1.7680   17.0880 C   0  0  0  0  0  0  0  0  0  0  0  0
   -3.3480    6.1120   14.2770 C   0  0  0  0  0  0  0  0  0  0  0  0
   -2.3260    5.0900   13.7660 C   0  0  0  0  0  0  0  0  0  0  0  0
   -7.6920    2.5340   17.5990 C   0  0  0  0  0  0  0  0  0  0  0  0
   -2.8370    7.6450   14.7880 C   0  0  0  0  0  0  0  0  0  0  0  0
   -3.6040    8.9230   14.7880 C   0  0  0  0  0  0  0  0  0  0  0  0
M  END
$$$$
