
     RDKit          3D

 18  0  0  0  0  0  0  0  0  0999 V2000
   -4.5980    3.1500   14.2680 C   0  0  0  0  0  0  0  0  0  0  0  0
   -2.9950    3.5400   15.3810 C   0  0  0  0  0  0  0  0  0  0  0  0
   -5.9830    4.1140   14.8930 C   0  0  0  0  0  0  0  0  0  0  0  0
   -4.1990    1.4620   15.6430 C   0  0  0  0  0  0  0  0  0  0  0  0
   -3.7230    4.7260   13.5970 C   0  0  0  0  0  0  0  0  0  0  0  0
   -4.5800    2.0180   16.8140 C   0  0  0  0  0  0  0  0  0  0  0  0
   -1.8310    4.5960   14.4740 C   0  0  0  0  0  0  0  0  0  0  0  0
   -6.3310    5.3690   15.6900 C   0  0  0  0  0  0  0  0  0  0  0  0
   -2.8760    5.4170   12.7620 C   0  0  0  0  0  0  0  0  0  0  0  0
   -7.1130    3.8650   16.9380 C   0  0  0  0  0  0  0  0  0  0  0  0
   -6.3380    1.3750   17.0400 C   0  0  0  0  0  0  0  0  0  0  0  0
   -4.5300   -0.4750   14.8090 C   0  0  0  0  0  0  0  0  0  0  0  0
   -3.2250    7.6150   15.4380 C   0  0  0  0  0  0  0  0  0  0  0  0
   -7.5430    1.1430   16.8500 C   0  0  0  0  0  0  0  0  0  0  0  0
   -6.2200    0.2850   17.4630 C   0  0  0  0  0  0  0  0  0  0  0  0
   -6.2980    2.3570   18.8640 C   0  0  0  0  0  0  0  0  0  0  0  0
   -1.6740    8.5200   15.3380 C   0  0  0  0  0  0  0  0  0  0  0  0
   -2.3020   11.4170   13.7550 C   0  0  0  0  0  0  0  0  0  0  0  0
M  END
$$$$

     RDKit          3D

 21  0  0  0  0  0  0  0  0  0999 V2000
   -3.8740    2.8040   14.7740 C   0  0  0  0  0  0  0  0  0  0  0  0
   -4.3850    4.0820   14.0070 C   0  0  0  0  0  0  0  0  0  0  0  0
   -4.8960    1.7820   15.2850 C   0  0  0  0  0  0  0  0  0  0  0  0
   -5.4070    2.0380   16.8180 C   0  0  0  0  0  0  0  0  0  0  0  0
   -5.9180    4.5930   14.0070 O   0  0  0  0  0  0  0  0  0  0  0  0
   -6.1740    3.3160   17.3290 C   0  0  0  0  0  0  0  0  0  0  0  0
   -3.3630    4.5930   12.9850 C   0  0  0  0  0  0  0  0  0  0  0  0
   -2.0850    5.1040   13.4960 C   0  0  0  0  0  0  0  0  0  0  0  0
   -6.6850    4.8490   15.2850 C   0  0  0  0  0  0  0  0  0  0  0  0
   -6.4290    0.7600   17.3290 C   0  0  0  0  0  0  0  0  0  0  0  0
   -4.3850    0.2490   15.0290 C   0  0  0  0  0  0  0  0  0  0  0  0
   -1.8290    6.1270   14.5180 C   0  0  0  0  0  0  0  0  0  0  0  0
   -6.4290    4.5930   16.8180 C   0  0  0  0  0  0  0  0  0  0  0  0
   -2.3400    6.6380   15.5400 C   0  0  0  0  0  0  0  0  0  0  0  0
   -7.9630    4.5930   14.7740 O   0  0  0  0  0  0  0  0  0  0  0  0
   -6.6850    5.6160   17.8400 C   0  0  0  0  0  0  0  0  0  0  0  0
   -6.6850   -0.5180   16.3070 C   0  0  0  0  0  0  0  0  0  0  0  0
   -2.3400    7.9160   16.3070 C   0  0  0  0  0  0  0  0  0  0  0  0
   -5.4070   -0.7730   15.2850 C   0  0  0  0  0  0  0  0  0  0  0  0
   -3.3630    8.6820   16.8180 O   0  0  0  0  0  0  0  0  0  0  0  0
   -1.0630    8.6820   16.3070 O   0  0  0  0  0  0  0  0  0  0  0  0
M  END
$$$$
