
     RDKit          3D

 18  0  0  0  0  0  0  0  0  0999 V2000
   -4.5980    3.1500   14.2680 C   0  0  0  0  0  0  0  0  0  0  0  0
   -2.9950    3.5400   15.3810 C   0  0  0  0  0  0  0  0  0  0  0  0
   -5.9830    4.1140   14.8930 C   0  0  0  0  0  0  0  0  0  0  0  0
   -4.1990    1.4620   15.6430 C   0  0  0  0  0  0  0  0  0  0  0  0
   -3.7230    4.7260   13.5970 C   0  0  0  0  0  0  0  0  0  0  0  0
   -4.5800    2.0180   16.8140 C   0  0  0  0  0  0  0  0  0  0  0  0
   -1.8310    4.5960   14.4740 C   0  0  0  0  0  0  0  0  0  0  0  0
   -6.3310    5.3690   15.6900 C   0  0  0  0  0  0  0  0  0  0  0  0
   -2.8760    5.4170   12.7620 C   0  0  0  0  0  0  0  0  0  0  0  0
   -7.1130    3.8650   16.9380 C   0  0  0  0  0  0  0  0  0  0  0  0
   -6.3380    1.3750   17.0400 C   0  0  0  0  0  0  0  0  0  0  0  0
   -4.5300   -0.4750   14.8090 C   0  0  0  0  0  0  0  0  0  0  0  0
   -3.2250    7.6150   15.4380 C   0  0  0  0  0  0  0  0  0  0  0  0
   -7.5430    1.1430   16.8500 C   0  0  0  0  0  0  0  0  0  0  0  0
   -6.2200    0.2850   17.4630 C   0  0  0  0  0  0  0  0  0  0  0  0
   -6.2980    2.3570   18.8640 C   0  0  0  0  0  0  0  0  0  0  0  0
   -1.6740    8.5200   15.3380 C   0  0  0  0  0  0  0  0  0  0  0  0
   -2.3020   11.4170   13.7550 C   0  0  0  0  0  0  0  0  0  0  0  0
M  END
$$$$

     RDKit          3D

 15  0  0  0  0  0  0  0  0  0999 V2000
   -4.1220    3.7980   15.5190 C   0  0  0  0  0  0  0  0  0  0  0  0
   -3.6110    3.2860   13.9850 C   0  0  0  0  0  0  0  0  0  0  0  0
   -2.5890    4.0530   13.2190 C   0  0  0  0  0  0  0  0  0  0  0  0
   -5.4000    4.5640   16.0300 C   0  0  0  0  0  0  0  0  0  0  0  0
   -4.1220    2.2640   16.2850 C   0  0  0  0  0  0  0  0  0  0  0  0
   -6.6780    3.7980   15.7740 C   0  0  0  0  0  0  0  0  0  0  0  0
   -2.5890    5.3310   12.9630 C   0  0  0  0  0  0  0  0  0  0  0  0
   -3.1000    6.3530   13.4740 N   0  0  0  0  0  0  0  0  0  0  0  0
   -6.9330    2.5200   16.7960 C   0  0  0  0  0  0  0  0  0  0  0  0
   -2.3330    7.6310   13.9850 C   0  0  0  0  0  0  0  0  0  0  0  0
   -5.9110    1.7530   17.5630 C   0  0  0  0  0  0  0  0  0  0  0  0
   -2.8440    8.1420   15.5190 C   0  0  0  0  0  0  0  0  0  0  0  0
   -5.1440    1.2420   16.5410 C   0  0  0  0  0  0  0  0  0  0  0  0
   -4.8890   -0.2910   16.2850 C   0  0  0  0  0  0  0  0  0  0  0  0
   -4.3780   -0.8020   15.0070 C   0  0  0  0  0  0  0  0  0  0  0  0
M  END
$$$$
