
     RDKit          3D

 18  0  0  0  0  0  0  0  0  0999 V2000
   -4.5980    3.1500   14.2680 C   0  0  0  0  0  0  0  0  0  0  0  0
   -2.9950    3.5400   15.3810 C   0  0  0  0  0  0  0  0  0  0  0  0
   -5.9830    4.1140   14.8930 C   0  0  0  0  0  0  0  0  0  0  0  0
   -4.1990    1.4620   15.6430 C   0  0  0  0  0  0  0  0  0  0  0  0
   -3.7230    4.7260   13.5970 C   0  0  0  0  0  0  0  0  0  0  0  0
   -4.5800    2.0180   16.8140 C   0  0  0  0  0  0  0  0  0  0  0  0
   -1.8310    4.5960   14.4740 C   0  0  0  0  0  0  0  0  0  0  0  0
   -6.3310    5.3690   15.6900 C   0  0  0  0  0  0  0  0  0  0  0  0
   -2.8760    5.4170   12.7620 C   0  0  0  0  0  0  0  0  0  0  0  0
   -7.1130    3.8650   16.9380 C   0  0  0  0  0  0  0  0  0  0  0  0
   -6.3380    1.3750   17.0400 C   0  0  0  0  0  0  0  0  0  0  0  0
   -4.5300   -0.4750   14.8090 C   0  0  0  0  0  0  0  0  0  0  0  0
   -3.2250    7.6150   15.4380 C   0  0  0  0  0  0  0  0  0  0  0  0
   -7.5430    1.1430   16.8500 C   0  0  0  0  0  0  0  0  0  0  0  0
   -6.2200    0.2850   17.4630 C   0  0  0  0  0  0  0  0  0  0  0  0
   -6.2980    2.3570   18.8640 C   0  0  0  0  0  0  0  0  0  0  0  0
   -1.6740    8.5200   15.3380 C   0  0  0  0  0  0  0  0  0  0  0  0
   -2.3020   11.4170   13.7550 C   0  0  0  0  0  0  0  0  0  0  0  0
M  END
$$$$

     RDKit          3D

 17  0  0  0  0  0  0  0  0  0999 V2000
   -4.1220    3.3010   14.5260 C   0  0  0  0  0  0  0  0  0  0  0  0
   -5.4000    3.3010   14.0140 C   0  0  0  0  0  0  0  0  0  0  0  0
   -3.6110    2.7900   15.8030 C   0  0  0  0  0  0  0  0  0  0  0  0
   -4.3780    1.7680   16.5700 C   0  0  0  0  0  0  0  0  0  0  0  0
   -5.9110    2.0230   17.0810 C   0  0  0  0  0  0  0  0  0  0  0  0
   -6.6780    3.3010   17.3370 C   0  0  0  0  0  0  0  0  0  0  0  0
   -3.1000    3.8120   13.5030 C   0  0  0  0  0  0  0  0  0  0  0  0
   -2.3330    5.3450   13.7590 S   0  0  0  0  0  0  0  0  0  0  0  0
   -3.3550    6.6230   14.2700 C   0  0  0  0  0  0  0  0  0  0  0  0
   -1.0550    5.0900   14.7810 O   0  0  0  0  0  0  0  0  0  0  0  0
   -5.9110    4.0680   12.9920 C   0  0  0  0  0  0  0  0  0  0  0  0
   -1.8220    5.8570   12.2260 O   0  0  0  0  0  0  0  0  0  0  0  0
   -5.6550    5.3450   12.7370 O   0  0  0  0  0  0  0  0  0  0  0  0
   -6.9330    3.5570   11.9700 C   0  0  0  0  0  0  0  0  0  0  0  0
   -6.4220    1.0010   18.1030 C   0  0  0  0  0  0  0  0  0  0  0  0
   -5.9110   -0.2770   18.1030 O   0  0  0  0  0  0  0  0  0  0  0  0
   -7.4440    1.2570   18.8700 O   0  0  0  0  0  0  0  0  0  0  0  0
M  END
$$$$
