
     RDKit          3D

 18  0  0  0  0  0  0  0  0  0999 V2000
   -4.5980    3.1500   14.2680 C   0  0  0  0  0  0  0  0  0  0  0  0
   -2.9950    3.5400   15.3810 C   0  0  0  0  0  0  0  0  0  0  0  0
   -5.9830    4.1140   14.8930 C   0  0  0  0  0  0  0  0  0  0  0  0
   -4.1990    1.4620   15.6430 C   0  0  0  0  0  0  0  0  0  0  0  0
   -3.7230    4.7260   13.5970 C   0  0  0  0  0  0  0  0  0  0  0  0
   -4.5800    2.0180   16.8140 C   0  0  0  0  0  0  0  0  0  0  0  0
   -1.8310    4.5960   14.4740 C   0  0  0  0  0  0  0  0  0  0  0  0
   -6.3310    5.3690   15.6900 C   0  0  0  0  0  0  0  0  0  0  0  0
   -2.8760    5.4170   12.7620 C   0  0  0  0  0  0  0  0  0  0  0  0
   -7.1130    3.8650   16.9380 C   0  0  0  0  0  0  0  0  0  0  0  0
   -6.3380    1.3750   17.0400 C   0  0  0  0  0  0  0  0  0  0  0  0
   -4.5300   -0.4750   14.8090 C   0  0  0  0  0  0  0  0  0  0  0  0
   -3.2250    7.6150   15.4380 C   0  0  0  0  0  0  0  0  0  0  0  0
   -7.5430    1.1430   16.8500 C   0  0  0  0  0  0  0  0  0  0  0  0
   -6.2200    0.2850   17.4630 C   0  0  0  0  0  0  0  0  0  0  0  0
   -6.2980    2.3570   18.8640 C   0  0  0  0  0  0  0  0  0  0  0  0
   -1.6740    8.5200   15.3380 C   0  0  0  0  0  0  0  0  0  0  0  0
   -2.3020   11.4170   13.7550 C   0  0  0  0  0  0  0  0  0  0  0  0
M  END
$$$$

     RDKit          3D

 21  0  0  0  0  0  0  0  0  0999 V2000
   -3.8740    3.3010   14.7740 C   0  0  0  0  0  0  0  0  0  0  0  0
   -5.1510    4.0680   14.2630 C   0  0  0  0  0  0  0  0  0  0  0  0
   -4.3850    2.0230   15.5400 C   0  0  0  0  0  0  0  0  0  0  0  0
   -6.4290    4.0680   14.5180 O   0  0  0  0  0  0  0  0  0  0  0  0
   -2.5960    2.7900   13.7520 C   0  0  0  0  0  0  0  0  0  0  0  0
   -6.9400    4.8340   15.7960 C   0  0  0  0  0  0  0  0  0  0  0  0
   -2.0850    4.0680   13.2400 C   0  0  0  0  0  0  0  0  0  0  0  0
   -5.1510    4.8340   13.2400 O   0  0  0  0  0  0  0  0  0  0  0  0
   -7.7070    3.8120   16.8180 C   0  0  0  0  0  0  0  0  0  0  0  0
   -4.6400    2.0230   17.0740 C   0  0  0  0  0  0  0  0  0  0  0  0
   -5.9180    1.5120   17.5850 C   0  0  0  0  0  0  0  0  0  0  0  0
   -1.3180    5.0900   14.0070 C   0  0  0  0  0  0  0  0  0  0  0  0
   -3.8740    0.7450   15.0290 C   0  0  0  0  0  0  0  0  0  0  0  0
   -1.8290    6.1120   15.0290 C   0  0  0  0  0  0  0  0  0  0  0  0
   -3.1070    7.1340   14.7740 C   0  0  0  0  0  0  0  0  0  0  0  0
   -4.3850   -0.5320   15.5400 C   0  0  0  0  0  0  0  0  0  0  0  0
   -5.1510   -0.7880   16.5630 O   0  0  0  0  0  0  0  0  0  0  0  0
   -0.0400    5.0900   13.7520 O   0  0  0  0  0  0  0  0  0  0  0  0
   -4.1290   -1.5550   14.5180 O   0  0  0  0  0  0  0  0  0  0  0  0
   -6.9400    2.5340   18.0960 C   0  0  0  0  0  0  0  0  0  0  0  0
   -2.8510    8.6680   15.0290 C   0  0  0  0  0  0  0  0  0  0  0  0
M  END
$$$$
