
     RDKit          3D

 23 24  0  0  0  0  0  0  0  0999 V2000
  -12.8230   16.2320   72.6320 C   0  0  0  0  0  0  0  0  0  0  0  0
  -13.7190   15.1950   72.3720 C   0  0  0  0  0  0  0  0  0  0  0  0
  -11.7070   16.4110   71.8140 C   0  0  0  0  0  0  0  0  0  0  0  0
  -10.6710   12.5270   66.4500 C   0  0  0  0  0  0  0  0  0  0  0  0
  -12.6340   13.8520   65.9700 C   0  0  0  0  0  0  0  0  0  0  0  0
  -13.5000   14.3380   71.2940 C   0  0  0  0  0  0  0  0  0  0  0  0
  -11.4880   15.5530   70.7360 C   0  0  0  0  0  0  0  0  0  0  0  0
  -11.5730   13.5270   66.8160 C   0  0  0  0  0  0  0  0  0  0  0  0
  -12.3840   14.5170   70.4760 C   0  0  0  0  0  0  0  0  0  0  0  0
  -11.5890   11.1770   69.0990 C   0  0  0  0  0  0  0  0  0  0  0  0
  -11.5810    6.4810   70.4730 C   0  0  0  0  0  0  0  0  0  0  0  0
  -12.6280    6.4240   71.5860 C   0  0  0  0  0  0  0  0  0  0  0  0
  -13.5470    8.8240   71.8210 C   0  0  0  0  0  0  0  0  0  0  0  0
  -10.7170    7.7320   70.4160 C   0  0  0  0  0  0  0  0  0  0  0  0
  -12.1520    9.4050   71.6240 C   0  0  0  0  0  0  0  0  0  0  0  0
  -13.7830    7.3920   71.3410 C   0  0  2  0  0  0  0  0  0  0  0  0
  -11.4020   14.2580   68.1280 C   0  0  0  0  0  0  0  0  0  0  0  0
  -10.7160   10.1170   69.7220 C   0  0  0  0  0  0  0  0  0  0  0  0
  -12.1450   13.5830   69.3020 C   0  0  1  0  0  0  0  0  0  0  0  0
  -11.4200   12.4060   69.7190 N   0  0  0  0  0  0  0  0  0  0  0  0
  -11.5400    8.9950   70.3070 N   0  0  1  0  0  0  0  0  0  0  0  0
  -14.9900    6.8770   72.0610 N   0  0  0  0  0  0  0  0  0  0  0  0
  -12.3470   10.9580   68.1580 O   0  0  0  0  0  0  0  0  0  0  0  0
  1  2  1  0
  1  3  1  0
  2  6  1  0
  3  7  1  0
  4  8  1  0
  5  8  1  0
  6  9  1  0
  7  9  1  0
  8 17  1  0
  9 19  1  0
 10 18  1  0
 10 20  1  0
 10 23  1  0
 11 12  1  0
 11 14  1  0
 12 16  1  0
 13 15  1  0
 13 16  1  0
 14 21  1  0
 15 21  1  0
 16 22  1  1
 19 17  1  6
 21 18  1  1
 19 20  1  0
M  CHG  2  21   1  22   1
M  END
$$$$

     RDKit          3D

  1  0  0  0  0  0  0  0  0  0999 V2000
  -10.6710   12.5270   66.4500 C   0  0  0  0  0  0  0  0  0  0  0  0
M  END
$$$$

     RDKit          3D

 13  0  0  0  0  0  0  0  0  0999 V2000
  -10.4790   15.6920   68.4820 C   0  0  0  0  0  0  0  0  0  0  0  0
  -10.1820   11.2700   67.4240 C   0  0  0  0  0  0  0  0  0  0  0  0
  -11.4770   12.9590   68.4410 C   0  0  0  0  0  0  0  0  0  0  0  0
  -10.7010   13.7520   67.0620 C   0  0  0  0  0  0  0  0  0  0  0  0
  -10.4800   15.3040   65.8730 C   0  0  0  0  0  0  0  0  0  0  0  0
  -11.5000   13.3380   65.3970 C   0  0  0  0  0  0  0  0  0  0  0  0
  -13.2640   13.5970   65.4500 C   0  0  0  0  0  0  0  0  0  0  0  0
   -9.8660   10.6420   64.5110 C   0  0  0  0  0  0  0  0  0  0  0  0
  -10.7350   11.9370   63.9740 C   0  0  0  0  0  0  0  0  0  0  0  0
  -11.6880   11.2550   69.2020 C   0  0  0  0  0  0  0  0  0  0  0  0
   -8.7760    9.6200   67.3740 C   0  0  0  0  0  0  0  0  0  0  0  0
  -12.1200   12.6640   63.5080 C   0  0  0  0  0  0  0  0  0  0  0  0
  -12.4030   14.8960   64.4540 C   0  0  0  0  0  0  0  0  0  0  0  0
M  END
$$$$

     RDKit          3D

 31  0  0  0  0  0  0  0  0  0999 V2000
  -10.9460    6.0580   67.9870 C   0  0  0  0  0  0  0  0  0  0  0  0
  -11.1440    9.0180   71.1200 C   0  0  0  0  0  0  0  0  0  0  0  0
   -9.1310    7.8720   70.0540 C   0  0  0  0  0  0  0  0  0  0  0  0
  -10.7300    7.7030   72.0650 C   0  0  0  0  0  0  0  0  0  0  0  0
   -9.7640    7.0900   71.5920 C   0  0  0  0  0  0  0  0  0  0  0  0
  -11.2260    6.1190   69.7530 C   0  0  0  0  0  0  0  0  0  0  0  0
  -11.9040    6.8380   71.3950 C   0  0  0  0  0  0  0  0  0  0  0  0
  -13.0140   10.2610   71.4930 C   0  0  0  0  0  0  0  0  0  0  0  0
  -12.2000   10.7900   70.5170 C   0  0  0  0  0  0  0  0  0  0  0  0
  -13.7760    8.9510   72.0210 C   0  0  0  0  0  0  0  0  0  0  0  0
  -14.9790    7.5820   71.8200 C   0  0  0  0  0  0  0  0  0  0  0  0
  -16.3910   14.7210   71.1460 C   0  0  0  0  0  0  0  0  0  0  0  0
  -14.5760   14.7150   71.9550 C   0  0  0  0  0  0  0  0  0  0  0  0
  -13.1930   14.6050   71.7970 C   0  0  0  0  0  0  0  0  0  0  0  0
  -13.6940   13.0220   72.2150 C   0  0  0  0  0  0  0  0  0  0  0  0
  -13.1410   14.0720   73.0820 C   0  0  0  0  0  0  0  0  0  0  0  0
  -12.0140   15.9510   72.3130 C   0  0  0  0  0  0  0  0  0  0  0  0
  -12.2970   15.4550   71.2600 C   0  0  0  0  0  0  0  0  0  0  0  0
  -11.4240   15.6970   70.3380 C   0  0  0  0  0  0  0  0  0  0  0  0
  -12.3230   15.5730   74.3430 C   0  0  0  0  0  0  0  0  0  0  0  0
  -14.0820   16.0080   72.8730 C   0  0  0  0  0  0  0  0  0  0  0  0
  -12.8230   15.3840   72.9300 C   0  0  0  0  0  0  0  0  0  0  0  0
   -9.5150   19.1510   67.6520 C   0  0  0  0  0  0  0  0  0  0  0  0
  -10.1920   19.3070   66.6580 C   0  0  0  0  0  0  0  0  0  0  0  0
   -9.2740   16.4270   67.5970 C   0  0  0  0  0  0  0  0  0  0  0  0
   -7.5530   15.6180   68.2320 C   0  0  0  0  0  0  0  0  0  0  0  0
   -7.1260   17.5700   67.3850 C   0  0  0  0  0  0  0  0  0  0  0  0
   -8.3610   16.3100   66.1870 C   0  0  0  0  0  0  0  0  0  0  0  0
  -12.9470   11.7160   63.1600 C   0  0  0  0  0  0  0  0  0  0  0  0
   -9.3770   11.6500   62.5330 C   0  0  0  0  0  0  0  0  0  0  0  0
  -11.5250   16.5410   64.3640 C   0  0  0  0  0  0  0  0  0  0  0  0
M  END
$$$$
